Distrib/IEEETestCases/ShortCircuitCases/123Bus/ieee123_Power_elem_kVA.txt

CIRCUIT ELEMENT POWER FLOW

(Power Flow into element from indicated Bus)

Power Delivery Elements

  Bus    Phase     kW     +j   kvar         kVA         PF

ELEMENT = "Vsource.SOURCE"
150          1     -1460.1 +j   -580.8     1571.3       0.9292
150          2     -1002.8 +j   -369.3     1068.7       0.9384
150          3     -1187.3 +j   -398.7     1252.5       0.9480
   TERMINAL TOTAL  -3650.2 +j  -1348.8     3891.5       0.9380
150          0         0.0 +j      0.0        0.0       1.0000
150          0        -0.0 +j      0.0        0.0       1.0000
150          0         0.0 +j     -0.0        0.0       1.0000
   TERMINAL TOTAL      0.0 +j      0.0        0.0       1.0000

ELEMENT = "Transformer.REG1A"
150          1      1460.1 +j    580.8     1571.3       0.9292
150          2      1002.8 +j    369.3     1068.7       0.9384
150          3      1187.3 +j    398.7     1252.5       0.9480
150          0         0.0 +j     -0.0        0.0       1.0000
   TERMINAL TOTAL   3650.2 +j   1348.8     3891.5       0.9380
150R         1     -1460.1 +j   -580.8     1571.3       0.9292
150R         2     -1002.8 +j   -369.3     1068.6       0.9384
150R         3     -1187.3 +j   -398.7     1252.5       0.9480
150R         0         0.0 +j      0.0        0.0       1.0000
   TERMINAL TOTAL  -3650.2 +j  -1348.8     3891.4       0.9380

ELEMENT = "Line.L115"
149          1      1460.1 +j    580.8     1571.3       0.9292
149          2      1002.8 +j    369.3     1068.6       0.9384
149          3      1187.3 +j    398.7     1252.5       0.9480
   TERMINAL TOTAL   3650.2 +j   1348.8     3891.4       0.9380
1            1     -1448.5 +j   -558.0     1552.3       0.9332
1            2     -1002.0 +j   -362.4     1065.5       0.9404
1            3     -1180.1 +j   -387.5     1242.1       0.9501
   TERMINAL TOTAL  -3630.6 +j  -1307.8     3859.0       0.9408

ELEMENT = "Line.L1"
1            2        20.0 +j     10.0       22.4       0.8944
   TERMINAL TOTAL     20.0 +j     10.0       22.4       0.8944
2            2       -20.0 +j    -10.0       22.4       0.8944
   TERMINAL TOTAL    -20.0 +j    -10.0       22.4       0.8944

ELEMENT = "Line.L2"
1            3       102.9 +j     51.6      115.1       0.8940
   TERMINAL TOTAL    102.9 +j     51.6      115.1       0.8940
3            3      -102.7 +j    -51.4      114.9       0.8943
   TERMINAL TOTAL   -102.7 +j    -51.4      114.9       0.8943

ELEMENT = "Line.L3"
1            1      1408.5 +j    538.0     1507.8       0.9342
1            2       982.0 +j    352.4     1043.3       0.9412
1            3      1077.2 +j    335.9     1128.4       0.9547
   TERMINAL TOTAL   3467.7 +j   1226.3     3678.2       0.9428
7            1     -1399.9 +j   -521.9     1494.0       0.9370
7            2      -981.6 +j   -347.0     1041.1       0.9428
7            3     -1072.9 +j   -329.4     1122.3       0.9560
   TERMINAL TOTAL  -3454.3 +j  -1198.3     3656.3       0.9448

ELEMENT = "Line.L4"
3            3        40.0 +j     20.0       44.7       0.8944
   TERMINAL TOTAL     40.0 +j     20.0       44.7       0.8944
4            3       -40.0 +j    -20.0       44.7       0.8944
   TERMINAL TOTAL    -40.0 +j    -20.0       44.7       0.8944

ELEMENT = "Line.L5"
3            3        62.7 +j     31.4       70.2       0.8942
   TERMINAL TOTAL     62.7 +j     31.4       70.2       0.8942
5            3       -62.7 +j    -31.3       70.1       0.8944
   TERMINAL TOTAL    -62.7 +j    -31.3       70.1       0.8944

ELEMENT = "Line.L6"
5            3        42.1 +j     21.1       47.1       0.8943
   TERMINAL TOTAL     42.1 +j     21.1       47.1       0.8943
6            3       -42.1 +j    -21.1       47.1       0.8944
   TERMINAL TOTAL    -42.1 +j    -21.1       47.1       0.8944

ELEMENT = "Line.L7"
7            1      1379.9 +j    511.9     1471.8       0.9376
7            2       981.6 +j    347.0     1041.1       0.9428
7            3      1072.9 +j    329.4     1122.3       0.9560
   TERMINAL TOTAL   3434.3 +j   1188.3     3634.1       0.9450
8            1     -1374.3 +j   -501.6     1462.9       0.9394
8            2      -981.2 +j   -343.5     1039.6       0.9438
8            3     -1070.1 +j   -324.9     1118.3       0.9569
   TERMINAL TOTAL  -3425.5 +j  -1169.9     3619.8       0.9463

ELEMENT = "Line.L8"
8            2        20.0 +j     10.0       22.4       0.8944
   TERMINAL TOTAL     20.0 +j     10.0       22.4       0.8944
12           2       -20.0 +j    -10.0       22.4       0.8944
   TERMINAL TOTAL    -20.0 +j    -10.0       22.4       0.8944

ELEMENT = "Line.L9"
8            1       100.9 +j     50.6      112.8       0.8940
   TERMINAL TOTAL    100.9 +j     50.6      112.8       0.8940
9            1      -100.8 +j    -50.4      112.7       0.8942
   TERMINAL TOTAL   -100.8 +j    -50.4      112.7       0.8942

ELEMENT = "Line.L10"
8            1      1273.4 +j    451.0     1350.9       0.9426
8            2       961.2 +j    333.5     1017.4       0.9448
8            3      1070.1 +j    324.9     1118.3       0.9569
   TERMINAL TOTAL   3304.7 +j   1109.4     3485.9       0.9480
13           1     -1266.5 +j   -438.1     1340.1       0.9450
13           2      -960.2 +j   -328.4     1014.8       0.9462
13           3     -1065.9 +j   -317.8     1112.3       0.9583
   TERMINAL TOTAL  -3292.6 +j  -1084.3     3466.6       0.9498

ELEMENT = "Line.L11"
9R           1        60.8 +j     30.4       68.0       0.8941
   TERMINAL TOTAL     60.8 +j     30.4       68.0       0.8941
14           1       -60.7 +j    -30.3       67.8       0.8944
   TERMINAL TOTAL    -60.7 +j    -30.3       67.8       0.8944

ELEMENT = "Line.L12"
13           3       101.3 +j     50.7      113.2       0.8942
   TERMINAL TOTAL    101.3 +j     50.7      113.2       0.8942
34           3      -101.2 +j    -50.6      113.1       0.8943
   TERMINAL TOTAL   -101.2 +j    -50.6      113.1       0.8943

ELEMENT = "Line.L13"
13           1       484.2 +j    263.5      551.3       0.8784
13           2       317.7 +j    215.5      383.9       0.8276
13           3       323.4 +j    188.7      374.4       0.8637
   TERMINAL TOTAL   1125.3 +j    667.7     1308.5       0.8600
18           1      -481.8 +j   -257.6      546.3       0.8819
18           2      -317.4 +j   -213.2      382.3       0.8301
18           3      -321.2 +j   -187.0      371.7       0.8643
   TERMINAL TOTAL  -1120.4 +j   -657.8     1299.2       0.8624

ELEMENT = "Line.L14"
14           1        40.5 +j     20.3       45.3       0.8943
   TERMINAL TOTAL     40.5 +j     20.3       45.3       0.8943
11           1       -40.5 +j    -20.3       45.3       0.8944
   TERMINAL TOTAL    -40.5 +j    -20.3       45.3       0.8944

ELEMENT = "Line.L15"
14           1        20.1 +j     10.1       22.5       0.8944
   TERMINAL TOTAL     20.1 +j     10.1       22.5       0.8944
10           1       -20.1 +j    -10.1       22.5       0.8944
   TERMINAL TOTAL    -20.1 +j    -10.1       22.5       0.8944

ELEMENT = "Line.L16"
15           3        40.0 +j     20.0       44.8       0.8943
   TERMINAL TOTAL     40.0 +j     20.0       44.8       0.8943
16           3       -40.0 +j    -20.0       44.7       0.8944
   TERMINAL TOTAL    -40.0 +j    -20.0       44.7       0.8944

ELEMENT = "Line.L17"
15           3        20.0 +j     10.0       22.4       0.8944
   TERMINAL TOTAL     20.0 +j     10.0       22.4       0.8944
17           3       -20.0 +j    -10.0       22.4       0.8944
   TERMINAL TOTAL    -20.0 +j    -10.0       22.4       0.8944

ELEMENT = "Line.L18"
18           1        79.8 +j     39.9       89.2       0.8942
   TERMINAL TOTAL     79.8 +j     39.9       89.2       0.8942
19           1       -79.7 +j    -39.8       89.1       0.8944
   TERMINAL TOTAL    -79.7 +j    -39.8       89.1       0.8944

ELEMENT = "Line.L19"
18           1       119.1 +j     60.1      133.4       0.8928
18           2        41.9 +j     21.0       46.9       0.8944
18           3       120.4 +j     60.4      134.7       0.8940
   TERMINAL TOTAL    281.5 +j    141.4      315.0       0.8936
21           1      -119.1 +j    -59.9      133.3       0.8932
21           2       -41.9 +j    -21.0       46.9       0.8943
21           3      -120.3 +j    -60.2      134.6       0.8942
   TERMINAL TOTAL   -281.3 +j   -141.2      314.8       0.8938

ELEMENT = "Line.L20"
19           1        39.7 +j     19.8       44.4       0.8943
   TERMINAL TOTAL     39.7 +j     19.8       44.4       0.8943
20           1       -39.6 +j    -19.8       44.3       0.8944
   TERMINAL TOTAL    -39.6 +j    -19.8       44.3       0.8944

ELEMENT = "Line.L21"
21           2        41.9 +j     21.0       46.9       0.8942
   TERMINAL TOTAL     41.9 +j     21.0       46.9       0.8942
22           2       -41.9 +j    -20.9       46.8       0.8944
   TERMINAL TOTAL    -41.9 +j    -20.9       46.8       0.8944

ELEMENT = "Line.L22"
21           1       119.1 +j     59.9      133.3       0.8932
21           2         0.0 +j     -0.0        0.0      -0.0621
21           3       120.3 +j     60.2      134.6       0.8942
   TERMINAL TOTAL    239.4 +j    120.2      267.9       0.8937
23           1      -119.1 +j    -59.8      133.3       0.8937
23           2        -0.0 +j      0.0        0.0      -0.0623
23           3      -120.2 +j    -60.1      134.4       0.8943
   TERMINAL TOTAL   -239.3 +j   -119.9      267.7       0.8940

ELEMENT = "Line.L23"
23           3        40.0 +j     20.0       44.8       0.8942
   TERMINAL TOTAL     40.0 +j     20.0       44.8       0.8942
24           3       -40.0 +j    -20.0       44.7       0.8944
   TERMINAL TOTAL    -40.0 +j    -20.0       44.7       0.8944

ELEMENT = "Line.L24"
23           1       119.1 +j     59.8      133.3       0.8937
23           2         0.0 +j     -0.0        0.0      -0.0623
23           3        80.1 +j     40.1       89.6       0.8943
   TERMINAL TOTAL    199.2 +j     99.9      222.9       0.8939
25           1      -119.1 +j    -59.6      133.2       0.8941
25           2        -0.0 +j      0.0        0.0      -0.0624
25           3       -80.1 +j    -40.1       89.5       0.8943
   TERMINAL TOTAL   -199.1 +j    -99.7      222.7       0.8942

ELEMENT = "Line.L25"
25R          1        40.1 +j     20.1       44.9       0.8939
25R          3        40.0 +j     20.0       44.8       0.8943
   TERMINAL TOTAL     80.2 +j     40.2       89.7       0.8941
26           1       -40.1 +j    -20.1       44.9       0.8941
26           3       -40.0 +j    -20.0       44.8       0.8943
   TERMINAL TOTAL    -80.2 +j    -40.1       89.6       0.8942

ELEMENT = "Line.L26"
25           1        78.9 +j     39.5       88.3       0.8942
25           2         0.0 +j     -0.0        0.0      -0.0624
25           3        40.0 +j     20.0       44.8       0.8943
   TERMINAL TOTAL    119.0 +j     59.5      133.0       0.8942
28           1       -78.9 +j    -39.5       88.2       0.8944
28           2        -0.0 +j      0.0        0.0      -0.0625
28           3       -40.0 +j    -20.0       44.8       0.8943
   TERMINAL TOTAL   -118.9 +j    -59.5      133.0       0.8944

ELEMENT = "Line.L27"
26           1        40.1 +j     20.1       44.9       0.8941
26           3        -0.0 +j     -0.0        0.0       0.1559
   TERMINAL TOTAL     40.1 +j     20.1       44.9       0.8941
27           1       -40.1 +j    -20.1       44.9       0.8942
27           3        -0.0 +j     -0.0        0.0       0.8764
   TERMINAL TOTAL    -40.1 +j    -20.1       44.9       0.8942

ELEMENT = "Line.L28"
26           3        40.0 +j     20.0       44.8       0.8943
   TERMINAL TOTAL     40.0 +j     20.0       44.8       0.8943
31           3       -40.0 +j    -20.0       44.7       0.8944
   TERMINAL TOTAL    -40.0 +j    -20.0       44.7       0.8944

ELEMENT = "Line.L29"
27           1        40.1 +j     20.1       44.9       0.8942
   TERMINAL TOTAL     40.1 +j     20.1       44.9       0.8942
33           1       -40.1 +j    -20.0       44.8       0.8944
   TERMINAL TOTAL    -40.1 +j    -20.0       44.8       0.8944

ELEMENT = "Line.L30"
28           1        39.3 +j     19.7       43.9       0.8943
28           2         0.0 +j     -0.0        0.0      -0.0625
28           3        40.0 +j     20.0       44.8       0.8943
   TERMINAL TOTAL     79.3 +j     39.7       88.7       0.8943
29           1       -39.3 +j    -19.6       43.9       0.8945
29           2        -0.0 +j      0.0        0.0      -0.0626
29           3       -40.0 +j    -20.0       44.7       0.8943
   TERMINAL TOTAL    -79.3 +j    -39.7       88.6       0.8944

ELEMENT = "Line.L31"
29           1         0.0 +j     -0.0        0.0      -0.0702
29           2         0.0 +j     -0.0        0.0      -0.0626
29           3        40.0 +j     20.0       44.7       0.8943
   TERMINAL TOTAL     40.0 +j     20.0       44.7       0.8944
30           1        -0.0 +j      0.0        0.0      -0.0702
30           2        -0.0 +j      0.0        0.0      -0.0627
30           3       -40.0 +j    -20.0       44.7       0.8944
   TERMINAL TOTAL    -40.0 +j    -20.0       44.7       0.8945

ELEMENT = "Line.L32"
30           1         0.0 +j     -0.0        0.0      -0.0702
30           2         0.0 +j     -0.0        0.0      -0.0627
30           3        -0.0 +j     -0.0        0.0       0.1322
   TERMINAL TOTAL     -0.0 +j     -0.0        0.0       0.0000
250          1         0.0 +j     -0.0        0.0      -0.2009
250          2        -0.0 +j     -0.0        0.0       0.5186
250          3        -0.0 +j      0.0        0.0      -0.7337
   TERMINAL TOTAL     -0.0 +j     -0.0        0.0       0.9827

ELEMENT = "Line.L33"
31           3        20.0 +j     10.0       22.4       0.8944
   TERMINAL TOTAL     20.0 +j     10.0       22.4       0.8944
32           3       -20.0 +j    -10.0       22.4       0.8944
   TERMINAL TOTAL    -20.0 +j    -10.0       22.4       0.8944

ELEMENT = "Line.L34"
34           3        60.1 +j     30.1       67.2       0.8943
   TERMINAL TOTAL     60.1 +j     30.1       67.2       0.8943
15           3       -60.0 +j    -30.0       67.1       0.8943
   TERMINAL TOTAL    -60.0 +j    -30.0       67.1       0.8943

ELEMENT = "Line.L35"
35           1        39.1 +j     19.6       43.8       0.8942
35           2        40.5 +j     20.3       45.3       0.8940
   TERMINAL TOTAL     79.6 +j     39.9       89.0       0.8941
36           1       -39.1 +j    -19.6       43.7       0.8943
36           2       -40.5 +j    -20.2       45.2       0.8943
   TERMINAL TOTAL    -79.6 +j    -39.8       89.0       0.8943

ELEMENT = "Line.L36"
35           1       217.8 +j    139.1      258.4       0.8428
35           2       220.0 +j    149.1      265.8       0.8278
35           3       200.7 +j    126.3      237.1       0.8464
   TERMINAL TOTAL    638.5 +j    414.4      761.2       0.8388
40           1      -217.5 +j   -138.7      258.0       0.8432
40           2      -219.9 +j   -148.8      265.5       0.8283
40           3      -200.6 +j   -126.0      236.9       0.8469
   TERMINAL TOTAL   -638.0 +j   -413.5      760.3       0.8392

ELEMENT = "Line.L37"
36           1        39.1 +j     19.6       43.7       0.8943
   TERMINAL TOTAL     39.1 +j     19.6       43.7       0.8943
37           1       -39.1 +j    -19.5       43.7       0.8944
   TERMINAL TOTAL    -39.1 +j    -19.5       43.7       0.8944

ELEMENT = "Line.L38"
36           2        40.5 +j     20.2       45.2       0.8943
   TERMINAL TOTAL     40.5 +j     20.2       45.2       0.8943
38           2       -40.4 +j    -20.2       45.2       0.8944
   TERMINAL TOTAL    -40.4 +j    -20.2       45.2       0.8944

ELEMENT = "Line.L39"
38           2        20.0 +j     10.0       22.4       0.8944
   TERMINAL TOTAL     20.0 +j     10.0       22.4       0.8944
39           2       -20.0 +j    -10.0       22.4       0.8944
   TERMINAL TOTAL    -20.0 +j    -10.0       22.4       0.8944

ELEMENT = "Line.L40"
40           3        20.0 +j     10.0       22.4       0.8944
   TERMINAL TOTAL     20.0 +j     10.0       22.4       0.8944
41           3       -20.0 +j    -10.0       22.4       0.8944
   TERMINAL TOTAL    -20.0 +j    -10.0       22.4       0.8944

ELEMENT = "Line.L41"
40           1       217.5 +j    138.7      258.0       0.8432
40           2       219.9 +j    148.8      265.5       0.8283
40           3       180.6 +j    116.0      214.6       0.8414
   TERMINAL TOTAL    618.0 +j    403.5      738.1       0.8374
42           1      -217.3 +j   -138.4      257.6       0.8435
42           2      -219.8 +j   -148.4      265.2       0.8288
42           3      -180.5 +j   -115.7      214.4       0.8418
   TERMINAL TOTAL   -617.6 +j   -402.5      737.2       0.8378

ELEMENT = "Line.L42"
42           2        41.5 +j     20.8       46.5       0.8942
   TERMINAL TOTAL     41.5 +j     20.8       46.5       0.8942
43           2       -41.5 +j    -20.8       46.4       0.8944
   TERMINAL TOTAL    -41.5 +j    -20.8       46.4       0.8944

ELEMENT = "Line.L43"
42           1       197.3 +j    128.4      235.4       0.8382
42           2       178.3 +j    127.6      219.2       0.8131
42           3       180.5 +j    115.7      214.4       0.8418
   TERMINAL TOTAL    556.0 +j    371.7      668.8       0.8313
44           1      -197.1 +j   -128.1      235.1       0.8385
44           2      -178.2 +j   -127.4      219.1       0.8134
44           3      -180.4 +j   -115.6      214.3       0.8421
   TERMINAL TOTAL   -555.7 +j   -371.1      668.3       0.8316

ELEMENT = "Line.L44"
44           1        39.7 +j     19.9       44.4       0.8943
   TERMINAL TOTAL     39.7 +j     19.9       44.4       0.8943
45           1       -39.7 +j    -19.9       44.4       0.8944
   TERMINAL TOTAL    -39.7 +j    -19.9       44.4       0.8944

ELEMENT = "Line.L45"
44           1       157.4 +j    108.2      191.0       0.8240
44           2       178.2 +j    127.4      219.1       0.8134
44           3       180.4 +j    115.6      214.3       0.8421
   TERMINAL TOTAL    516.0 +j    351.2      624.2       0.8267
47           1      -157.3 +j   -108.1      190.8       0.8242
47           2      -178.1 +j   -127.2      218.8       0.8137
47           3      -180.3 +j   -115.3      214.0       0.8425
   TERMINAL TOTAL   -515.7 +j   -350.6      623.6       0.8270

ELEMENT = "Line.L46"
45           1        20.0 +j     10.0       22.4       0.8944
   TERMINAL TOTAL     20.0 +j     10.0       22.4       0.8944
46           1       -20.0 +j    -10.0       22.4       0.8944
   TERMINAL TOTAL    -20.0 +j    -10.0       22.4       0.8944

ELEMENT = "Line.L47"
47           1        67.8 +j     48.4       83.3       0.8137
47           2        72.4 +j     51.7       89.0       0.8137
47           3        70.2 +j     50.2       86.3       0.8136
   TERMINAL TOTAL    210.5 +j    150.4      258.7       0.8137
48           1       -67.8 +j    -48.4       83.3       0.8137
48           2       -72.4 +j    -51.7       89.0       0.8137
48           3       -70.2 +j    -50.2       86.3       0.8137
   TERMINAL TOTAL   -210.4 +j   -150.3      258.6       0.8137

ELEMENT = "Line.L48"
47           1        55.0 +j     35.0       65.2       0.8436
47           2        70.0 +j     50.0       86.1       0.8137
47           3        75.0 +j     40.0       85.0       0.8822
   TERMINAL TOTAL    200.1 +j    125.1      236.0       0.8479
49           1       -55.0 +j    -35.0       65.2       0.8437
49           2       -70.0 +j    -50.0       86.0       0.8138
49           3       -75.0 +j    -40.0       85.0       0.8823
   TERMINAL TOTAL   -200.0 +j   -125.0      235.9       0.8480

ELEMENT = "Line.L49"
49           1        20.0 +j     10.0       22.4       0.8944
49           2        -0.0 +j     -0.0        0.0       0.3735
49           3        40.0 +j     20.0       44.7       0.8944
   TERMINAL TOTAL     60.0 +j     30.0       67.1       0.8944
50           1       -20.0 +j    -10.0       22.4       0.8944
50           2         0.0 +j      0.0        0.0       0.3733
50           3       -40.0 +j    -20.0       44.7       0.8945
   TERMINAL TOTAL    -60.0 +j    -30.0       67.1       0.8945

ELEMENT = "Line.L50"
50           1        20.0 +j     10.0       22.4       0.8944
50           2        -0.0 +j     -0.0        0.0       0.3733
50           3         0.0 +j     -0.0        0.0      -0.1457
   TERMINAL TOTAL     20.0 +j     10.0       22.4       0.8946
51           1       -20.0 +j    -10.0       22.4       0.8945
51           2         0.0 +j      0.0        0.0       0.3733
51           3        -0.0 +j      0.0        0.0      -0.1458
   TERMINAL TOTAL    -20.0 +j    -10.0       22.4       0.8946

ELEMENT = "Line.L51"
51           1         0.0 +j     -0.0        0.0      -0.3053
51           2        -0.0 +j     -0.0        0.0       0.3733
51           3         0.0 +j     -0.0        0.0      -0.1458
   TERMINAL TOTAL     -0.0 +j     -0.0        0.0       0.0000
151          1         0.0 +j     -0.0        0.0      -1.0000
151          2         0.0 +j     -0.0        0.0      -1.0000
151          3         0.0 +j      0.0        0.0       1.0000
   TERMINAL TOTAL      0.0 +j     -0.0        0.0      -1.0000

ELEMENT = "Line.L52"
52           1       738.6 +j    148.7      753.4       0.9803
52           2       641.9 +j    109.7      651.2       0.9857
52           3       639.8 +j     75.3      644.2       0.9931
   TERMINAL TOTAL   2020.2 +j    333.7     2047.6       0.9866
53           1      -736.9 +j   -146.1      751.3       0.9809
53           2      -641.4 +j   -108.1      650.5       0.9861
53           3      -639.0 +j    -73.7      643.3       0.9934
   TERMINAL TOTAL  -2017.4 +j   -328.0     2043.9       0.9870

ELEMENT = "Line.L53"
53           1       696.9 +j    126.1      708.2       0.9840
53           2       641.4 +j    108.1      650.5       0.9861
53           3       639.0 +j     73.7      643.3       0.9934
   TERMINAL TOTAL   1977.4 +j    308.0     2001.2       0.9881
54           1      -696.0 +j   -124.7      707.1       0.9843
54           2      -641.1 +j   -107.1      650.0       0.9863
54           3      -638.6 +j    -72.7      642.7       0.9936
   TERMINAL TOTAL  -1975.7 +j   -304.6     1999.1       0.9883

ELEMENT = "Line.L54"
54           1        19.7 +j      9.8       22.0       0.8945
54           2        20.0 +j     10.0       22.4       0.8944
54           3         0.0 +j     -0.0        0.0      -0.0684
   TERMINAL TOTAL     39.7 +j     19.8       44.3       0.8945
55           1       -19.7 +j     -9.8       22.0       0.8945
55           2       -20.0 +j    -10.0       22.4       0.8944
55           3        -0.0 +j      0.0        0.0      -0.0684
   TERMINAL TOTAL    -39.7 +j    -19.8       44.3       0.8945

ELEMENT = "Line.L55"
54           1       676.4 +j    114.9      686.1       0.9859
54           2       621.1 +j     97.1      628.7       0.9880
54           3       638.6 +j     72.7      642.7       0.9936
   TERMINAL TOTAL   1936.1 +j    284.7     1956.9       0.9894
57           1      -674.8 +j   -111.1      683.9       0.9867
57           2      -619.5 +j    -94.4      626.6       0.9886
57           3      -637.4 +j    -70.1      641.2       0.9940
   TERMINAL TOTAL  -1931.6 +j   -275.6     1951.2       0.9900

ELEMENT = "Line.L56"
55           1        -0.0 +j     -0.0        0.0       0.1484
55           2        20.0 +j     10.0       22.4       0.8944
55           3         0.0 +j     -0.0        0.0      -0.0684
   TERMINAL TOTAL     20.0 +j     10.0       22.4       0.8945
56           1        -0.0 +j     -0.0        0.0       0.0424
56           2       -20.0 +j    -10.0       22.4       0.8944
56           3         0.0 +j      0.0        0.0       0.9686
   TERMINAL TOTAL    -20.0 +j    -10.0       22.4       0.8944

ELEMENT = "Line.L57"
57           2        40.5 +j     20.2       45.2       0.8943
   TERMINAL TOTAL     40.5 +j     20.2       45.2       0.8943
58           2       -40.4 +j    -20.2       45.2       0.8944
   TERMINAL TOTAL    -40.4 +j    -20.2       45.2       0.8944

ELEMENT = "Line.L58"
57           1       674.8 +j    111.1      683.9       0.9867
57           2       579.0 +j     74.1      583.7       0.9919
57           3       637.4 +j     70.1      641.2       0.9940
   TERMINAL TOTAL   1891.2 +j    255.4     1908.3       0.9910
60           1      -671.4 +j   -102.7      679.2       0.9885
60           2      -576.1 +j    -69.2      580.3       0.9929
60           3      -634.5 +j    -64.6      637.8       0.9949
   TERMINAL TOTAL  -1882.0 +j   -236.6     1896.8       0.9922

ELEMENT = "Line.L59"
58           2        20.0 +j     10.0       22.4       0.8944
   TERMINAL TOTAL     20.0 +j     10.0       22.4       0.8944
59           2       -20.0 +j    -10.0       22.4       0.8944
   TERMINAL TOTAL    -20.0 +j    -10.0       22.4       0.8944

ELEMENT = "Line.L60"
60           1        -0.0 +j     -0.0        0.0       0.0858
60           2         0.0 +j     -0.0        0.0      -0.1392
60           3        -0.0 +j     -0.0        0.0       0.0575
   TERMINAL TOTAL      0.0 +j     -0.0        0.0      -0.0003
61           1        -0.0 +j     -0.0        0.0       0.0289
61           2        -0.0 +j     -0.0        0.0       0.0543
61           3        -0.0 +j     -0.0        0.0       0.0454
   TERMINAL TOTAL     -0.0 +j     -0.0        0.0       0.0431

ELEMENT = "Line.L61"
60           1        84.3 +j     65.6      106.8       0.7894
60           2       111.7 +j     60.6      127.1       0.8790
60           3       175.0 +j     83.5      193.9       0.9024
   TERMINAL TOTAL    371.0 +j    209.7      426.1       0.8705
62           1       -84.2 +j    -65.5      106.7       0.7892
62           2      -111.6 +j    -60.6      126.9       0.8787
62           3      -174.6 +j    -83.3      193.5       0.9025
   TERMINAL TOTAL   -370.4 +j   -209.5      425.5       0.8704

ELEMENT = "Line.L62"
62           1        84.2 +j     65.5      106.7       0.7892
62           2       111.6 +j     60.6      126.9       0.8787
62           3       134.6 +j     63.4      148.8       0.9048
   TERMINAL TOTAL    330.4 +j    189.5      380.9       0.8675
63           1       -84.2 +j    -65.5      106.7       0.7891
63           2      -111.5 +j    -60.6      126.8       0.8786
63           3      -134.5 +j    -63.3      148.6       0.9049
   TERMINAL TOTAL   -330.1 +j   -189.4      380.6       0.8674

ELEMENT = "Line.L63"
63           1        44.2 +j     45.5       63.4       0.6963
63           2       111.5 +j     60.6      126.8       0.8786
63           3       134.5 +j     63.3      148.6       0.9049
   TERMINAL TOTAL    290.1 +j    169.4      335.9       0.8636
64           1       -44.1 +j    -45.6       63.4       0.6958
64           2      -111.2 +j    -60.6      126.6       0.8782
64           3      -134.3 +j    -63.1      148.3       0.9050
   TERMINAL TOTAL   -289.6 +j   -169.2      335.4       0.8634

ELEMENT = "Line.L64"
64           1        44.1 +j     45.6       63.4       0.6958
64           2        35.3 +j     25.1       43.3       0.8147
64           3       134.3 +j     63.1      148.3       0.9050
   TERMINAL TOTAL    213.7 +j    133.8      252.1       0.8476
65           1       -44.1 +j    -45.5       63.4       0.6957
65           2       -35.3 +j    -25.2       43.3       0.8139
65           3      -133.9 +j    -62.9      147.9       0.9050
   TERMINAL TOTAL   -213.2 +j   -133.7      251.7       0.8473

ELEMENT = "Line.L65"
65           1         0.0 +j     -0.0        0.0      -0.0002
65           2        -0.0 +j     -0.0        0.0       0.0002
65           3        75.1 +j     35.0       82.9       0.9063
   TERMINAL TOTAL     75.1 +j     35.0       82.9       0.9065
66           1        -0.0 +j     -0.0        0.0       0.9840
66           2        -0.0 +j     -0.0        0.0       0.6628
66           3       -75.0 +j    -35.0       82.8       0.9062
   TERMINAL TOTAL    -75.0 +j    -35.0       82.8       0.9062

ELEMENT = "Line.L66"
67           1       120.4 +j     60.4      134.7       0.8939
   TERMINAL TOTAL    120.4 +j     60.4      134.7       0.8939
68           1      -120.2 +j    -60.2      134.5       0.8941
   TERMINAL TOTAL   -120.2 +j    -60.2      134.5       0.8941

ELEMENT = "Line.L67"
67           1       262.9 +j   -128.0      292.4      -0.8991
67           2       303.4 +j    -76.8      313.0      -0.9694
67           3       315.8 +j    -91.7      328.9      -0.9604
   TERMINAL TOTAL    882.2 +j   -296.5      930.7      -0.9479
72           1      -262.8 +j    128.5      292.5      -0.8983
72           2      -303.0 +j     77.3      312.7      -0.9690
72           3      -315.6 +j     92.3      328.8      -0.9598
   TERMINAL TOTAL   -881.4 +j    298.1      930.4      -0.9473

ELEMENT = "Line.L68"
67           1       182.9 +j     92.4      204.9       0.8925
67           2       160.4 +j     83.8      181.0       0.8862
67           3       142.8 +j     71.7      159.7       0.8938
   TERMINAL TOTAL    486.0 +j    247.9      545.6       0.8908
97           1      -182.7 +j    -92.2      204.7       0.8928
97           2      -160.3 +j    -83.7      180.8       0.8865
97           3      -142.7 +j    -71.6      159.7       0.8939
   TERMINAL TOTAL   -485.8 +j   -247.4      545.2       0.8911

ELEMENT = "Line.L69"
68           1       100.2 +j     50.2      112.1       0.8940
   TERMINAL TOTAL    100.2 +j     50.2      112.1       0.8940
69           1      -100.1 +j    -50.1      111.9       0.8943
   TERMINAL TOTAL   -100.1 +j    -50.1      111.9       0.8943

ELEMENT = "Line.L70"
69           1        60.1 +j     30.1       67.2       0.8942
   TERMINAL TOTAL     60.1 +j     30.1       67.2       0.8942
70           1       -60.0 +j    -30.0       67.1       0.8944
   TERMINAL TOTAL    -60.0 +j    -30.0       67.1       0.8944

ELEMENT = "Line.L71"
70           1        40.0 +j     20.0       44.8       0.8943
   TERMINAL TOTAL     40.0 +j     20.0       44.8       0.8943
71           1       -40.0 +j    -20.0       44.7       0.8944
   TERMINAL TOTAL    -40.0 +j    -20.0       44.7       0.8944

ELEMENT = "Line.L72"
72           3       122.6 +j     61.5      137.1       0.8939
   TERMINAL TOTAL    122.6 +j     61.5      137.1       0.8939
73           3      -122.3 +j    -61.2      136.8       0.8942
   TERMINAL TOTAL   -122.3 +j    -61.2      136.8       0.8942

ELEMENT = "Line.L73"
72           1       262.8 +j   -128.5      292.5      -0.8983
72           2       303.0 +j    -77.3      312.7      -0.9690
72           3       193.0 +j   -153.8      246.8      -0.7822
   TERMINAL TOTAL    758.8 +j   -359.5      839.7      -0.9037
76           1      -262.6 +j    128.8      292.5      -0.8979
76           2      -302.7 +j     77.7      312.6      -0.9686
76           3      -193.0 +j    154.0      246.9      -0.7816
   TERMINAL TOTAL   -758.4 +j    360.5      839.7      -0.9031

ELEMENT = "Line.L74"
73           3        82.3 +j     41.2       92.1       0.8941
   TERMINAL TOTAL     82.3 +j     41.2       92.1       0.8941
74           3       -82.2 +j    -41.1       91.9       0.8944
   TERMINAL TOTAL    -82.2 +j    -41.1       91.9       0.8944

ELEMENT = "Line.L75"
74           3        40.0 +j     20.0       44.8       0.8943
   TERMINAL TOTAL     40.0 +j     20.0       44.8       0.8943
75           3       -40.0 +j    -20.0       44.7       0.8944
   TERMINAL TOTAL    -40.0 +j    -20.0       44.7       0.8944

ELEMENT = "Line.L76"
76           1        83.0 +j   -171.5      190.5      -0.4354
76           2        80.6 +j   -173.9      191.7      -0.4204
76           3        80.9 +j   -172.9      190.9      -0.4240
   TERMINAL TOTAL    244.5 +j   -518.4      573.2      -0.4266
77           1       -82.9 +j    171.8      190.7      -0.4344
77           2       -80.4 +j    174.2      191.9      -0.4191
77           3       -80.8 +j    173.2      191.1      -0.4228
   TERMINAL TOTAL   -244.1 +j    519.2      573.7      -0.4254

ELEMENT = "Line.L77"
76           1        80.2 +j    -12.6       81.2      -0.9878
76           2       141.5 +j     18.5      142.7       0.9916
76           3        40.0 +j    -33.2       52.0      -0.7689
   TERMINAL TOTAL    261.7 +j    -27.4      263.1      -0.9946
86           1       -80.1 +j     12.7       81.1      -0.9878
86           2      -141.3 +j    -18.1      142.5       0.9919
86           3       -40.0 +j     33.3       52.1      -0.7686
   TERMINAL TOTAL   -261.5 +j     27.9      263.0      -0.9944

ELEMENT = "Line.L78"
77           1        82.9 +j   -171.8      190.7      -0.4344
77           2        40.4 +j   -194.3      198.4      -0.2038
77           3        80.8 +j   -173.2      191.1      -0.4228
   TERMINAL TOTAL    204.1 +j   -539.2      576.6      -0.3540
78           1       -82.8 +j    171.9      190.8      -0.4341
78           2       -40.4 +j    194.3      198.5      -0.2036
78           3       -80.7 +j    173.2      191.1      -0.4225
   TERMINAL TOTAL   -204.0 +j    539.4      576.7      -0.3537

ELEMENT = "Line.L79"
78           1        42.5 +j     21.2       47.5       0.8943
78           2        -0.0 +j     -0.0        0.0       0.0629
78           3        -0.0 +j     -0.0        0.0       0.0737
   TERMINAL TOTAL     42.5 +j     21.2       47.5       0.8944
79           1       -42.5 +j    -21.2       47.5       0.8944
79           2        -0.0 +j      0.0        0.0      -0.4440
79           3         0.0 +j     -0.0        0.0      -0.9529
   TERMINAL TOTAL    -42.5 +j    -21.2       47.5       0.8944

ELEMENT = "Line.L80"
78           1        40.4 +j   -193.1      197.3      -0.2045
78           2        40.4 +j   -194.3      198.5      -0.2036
78           3        80.7 +j   -173.2      191.1      -0.4225
   TERMINAL TOTAL    161.5 +j   -560.7      583.5      -0.2768
80           1       -40.2 +j    193.6      197.7      -0.2035
80           2       -40.3 +j    194.7      198.8      -0.2025
80           3       -80.5 +j    173.5      191.3      -0.4208
   TERMINAL TOTAL   -161.0 +j    561.8      584.4      -0.2755

ELEMENT = "Line.L81"
80           1        40.2 +j   -193.6      197.7      -0.2035
80           2         0.3 +j   -214.7      214.7      -0.0012
80           3        80.5 +j   -173.5      191.3      -0.4208
   TERMINAL TOTAL    121.0 +j   -581.8      594.2      -0.2036
81           1       -40.2 +j    193.7      197.8      -0.2030
81           2        -0.2 +j    214.9      214.9      -0.0010
81           3       -80.4 +j    173.6      191.3      -0.4202
   TERMINAL TOTAL   -120.8 +j    582.2      594.6      -0.2031

ELEMENT = "Line.L82"
81           1        40.2 +j   -193.7      197.8      -0.2030
81           2         0.2 +j   -214.9      214.9      -0.0010
81           3        20.2 +j   -203.8      204.8      -0.0988
   TERMINAL TOTAL     60.6 +j   -612.3      615.3      -0.0985
82           1       -40.1 +j    193.9      198.0      -0.2024
82           2        -0.1 +j    215.1      215.1      -0.0005
82           3       -20.1 +j    203.9      204.9      -0.0982
   TERMINAL TOTAL    -60.3 +j    613.0      615.9      -0.0979

ELEMENT = "Line.L83"
81           3        60.2 +j     30.2       67.3       0.8940
   TERMINAL TOTAL     60.2 +j     30.2       67.3       0.8940
84           3       -60.0 +j    -30.0       67.1       0.8943
   TERMINAL TOTAL    -60.0 +j    -30.0       67.1       0.8943

ELEMENT = "Line.L84"
82           1         0.1 +j   -213.9      213.9      -0.0004
82           2         0.1 +j   -215.1      215.1      -0.0005
82           3        20.1 +j   -203.9      204.9      -0.0982
   TERMINAL TOTAL     20.3 +j   -633.0      633.3      -0.0321
83           1        -0.0 +j    214.1      214.1      -0.0000
83           2        -0.0 +j    215.4      215.4      -0.0000
83           3       -20.0 +j    204.1      205.1      -0.0975
   TERMINAL TOTAL    -20.0 +j    633.6      633.9      -0.0315

ELEMENT = "Line.L85"
84           3        40.0 +j     20.0       44.8       0.8943
   TERMINAL TOTAL     40.0 +j     20.0       44.8       0.8943
85           3       -40.0 +j    -20.0       44.7       0.8944
   TERMINAL TOTAL    -40.0 +j    -20.0       44.7       0.8944

ELEMENT = "Line.L86"
86           1        80.1 +j    -12.7       81.1      -0.9878
86           2       121.3 +j      8.1      121.6       0.9978
86           3        40.0 +j    -33.3       52.1      -0.7686
   TERMINAL TOTAL    241.5 +j    -37.9      244.4      -0.9879
87           1       -80.1 +j     12.7       81.1      -0.9877
87           2      -121.3 +j     -7.9      121.5       0.9979
87           3       -40.0 +j     33.3       52.1      -0.7685
   TERMINAL TOTAL   -241.4 +j     38.1      244.4      -0.9877

ELEMENT = "Line.L87"
87           1        40.0 +j    -32.7       51.7      -0.7743
   TERMINAL TOTAL     40.0 +j    -32.7       51.7      -0.7743
88           1       -40.0 +j     32.7       51.7      -0.7740
   TERMINAL TOTAL    -40.0 +j     32.7       51.7      -0.7740

ELEMENT = "Line.L88"
87           1        40.1 +j     20.0       44.8       0.8944
87           2        81.3 +j    -12.1       82.2      -0.9890
87           3        40.0 +j    -33.3       52.1      -0.7685
   TERMINAL TOTAL    161.3 +j    -25.4      163.3      -0.9878
89           1       -40.0 +j    -20.0       44.8       0.8944
89           2       -81.2 +j     12.2       82.1      -0.9889
89           3       -40.0 +j     33.3       52.1      -0.7684
   TERMINAL TOTAL   -161.3 +j     25.5      163.3      -0.9877

ELEMENT = "Line.L89"
89           2        41.2 +j    -32.3       52.3      -0.7874
   TERMINAL TOTAL     41.2 +j    -32.3       52.3      -0.7874
90           2       -41.2 +j     32.3       52.3      -0.7869
   TERMINAL TOTAL    -41.2 +j     32.3       52.3      -0.7869

ELEMENT = "Line.L90"
89           1        40.0 +j     20.0       44.8       0.8944
89           2        40.0 +j     20.1       44.8       0.8941
89           3        40.0 +j    -33.3       52.1      -0.7684
   TERMINAL TOTAL    120.1 +j      6.7      120.3       0.9984
91           1       -40.0 +j    -20.0       44.8       0.8943
91           2       -40.0 +j    -20.0       44.8       0.8942
91           3       -40.0 +j     33.4       52.1      -0.7682
   TERMINAL TOTAL   -120.1 +j     -6.7      120.3       0.9984

ELEMENT = "Line.L91"
91           3        40.0 +j    -33.4       52.1      -0.7682
   TERMINAL TOTAL     40.0 +j    -33.4       52.1      -0.7682
92           3       -40.0 +j     33.4       52.1      -0.7677
   TERMINAL TOTAL    -40.0 +j     33.4       52.1      -0.7677

ELEMENT = "Line.L92"
91           1        40.0 +j     20.0       44.8       0.8943
91           2        40.0 +j     20.0       44.8       0.8942
91           3        -0.0 +j     -0.0        0.0       0.0733
   TERMINAL TOTAL     80.1 +j     40.1       89.5       0.8943
93           1       -40.0 +j    -20.0       44.8       0.8944
93           2       -40.0 +j    -20.0       44.7       0.8943
93           3         0.0 +j      0.0        0.0       0.0732
   TERMINAL TOTAL    -80.0 +j    -40.0       89.5       0.8943

ELEMENT = "Line.L93"
93           1        40.0 +j     20.0       44.8       0.8943
   TERMINAL TOTAL     40.0 +j     20.0       44.8       0.8943
94           1       -40.0 +j    -20.0       44.7       0.8944
   TERMINAL TOTAL    -40.0 +j    -20.0       44.7       0.8944

ELEMENT = "Line.L94"
93           1         0.0 +j     -0.0        0.0      -0.1374
93           2        40.0 +j     20.0       44.7       0.8943
93           3        -0.0 +j     -0.0        0.0       0.0732
   TERMINAL TOTAL     40.0 +j     20.0       44.7       0.8943
95           1        -0.0 +j      0.0        0.0      -0.2524
95           2       -40.0 +j    -20.0       44.7       0.8944
95           3         0.0 +j      0.0        0.0       0.8882
   TERMINAL TOTAL    -40.0 +j    -20.0       44.7       0.8944

ELEMENT = "Line.L95"
95           2        20.0 +j     10.0       22.4       0.8944
   TERMINAL TOTAL     20.0 +j     10.0       22.4       0.8944
96           2       -20.0 +j    -10.0       22.4       0.8944
   TERMINAL TOTAL    -20.0 +j    -10.0       22.4       0.8944

ELEMENT = "Line.L96"
97           1        40.0 +j     20.0       44.7       0.8945
97           2        40.0 +j     20.0       44.8       0.8944
97           3        42.4 +j     21.3       47.5       0.8940
   TERMINAL TOTAL    122.5 +j     61.3      136.9       0.8943
98           1       -40.0 +j    -20.0       44.7       0.8945
98           2       -40.0 +j    -20.0       44.8       0.8945
98           3       -42.4 +j    -21.3       47.5       0.8941
   TERMINAL TOTAL   -122.5 +j    -61.3      136.9       0.8944

ELEMENT = "Line.L97"
98           1         0.0 +j     -0.0        0.0      -0.0603
98           2        40.0 +j     20.0       44.8       0.8945
98           3        42.4 +j     21.3       47.5       0.8941
   TERMINAL TOTAL     82.5 +j     41.3       92.2       0.8943
99           1        -0.0 +j      0.0        0.0      -0.0605
99           2       -40.0 +j    -20.0       44.7       0.8945
99           3       -42.4 +j    -21.2       47.4       0.8944
   TERMINAL TOTAL    -82.4 +j    -41.2       92.2       0.8945

ELEMENT = "Line.L98"
99           1         0.0 +j     -0.0        0.0      -0.0605
99           2        -0.0 +j     -0.0        0.0       0.1393
99           3        42.4 +j     21.2       47.4       0.8944
   TERMINAL TOTAL     42.4 +j     21.2       47.4       0.8945
100          1        -0.0 +j      0.0        0.0      -0.0605
100          2         0.0 +j      0.0        0.0       0.1390
100          3       -42.4 +j    -21.2       47.4       0.8945
   TERMINAL TOTAL    -42.4 +j    -21.2       47.4       0.8946

ELEMENT = "Line.L99"
100          1         0.0 +j     -0.0        0.0      -0.0605
100          2        -0.0 +j     -0.0        0.0       0.1390
100          3         0.0 +j     -0.0        0.0      -0.0788
   TERMINAL TOTAL      0.0 +j     -0.0        0.0      -0.0000
450          1        -0.0 +j      0.0        0.0      -0.1331
450          2        -0.0 +j     -0.0        0.0       0.5362
450          3         0.0 +j     -0.0        0.0      -0.9538
   TERMINAL TOTAL     -0.0 +j     -0.0        0.0       0.6264

ELEMENT = "Line.L118"
197          1       142.7 +j     72.2      160.0       0.8924
197          2       120.3 +j     63.6      136.1       0.8839
197          3       100.3 +j     50.3      112.2       0.8939
   TERMINAL TOTAL    363.3 +j    186.1      408.2       0.8900
101          1      -142.7 +j    -72.0      159.8       0.8927
101          2      -120.2 +j    -63.5      136.0       0.8841
101          3      -100.3 +j    -50.3      112.2       0.8940
   TERMINAL TOTAL   -363.2 +j   -185.9      408.0       0.8902

ELEMENT = "Line.L100"
101          3       100.3 +j     50.3      112.2       0.8939
   TERMINAL TOTAL    100.3 +j     50.3      112.2       0.8939
102          3      -100.2 +j    -50.2      112.0       0.8941
   TERMINAL TOTAL   -100.2 +j    -50.2      112.0       0.8941

ELEMENT = "Line.L101"
101          1       142.7 +j     72.0      159.8       0.8927
101          2       120.2 +j     63.5      136.0       0.8841
101          3         0.0 +j     -0.0        0.0      -0.0791
   TERMINAL TOTAL    262.9 +j    135.6      295.8       0.8888
105          1      -142.5 +j    -71.9      159.6       0.8929
105          2      -120.2 +j    -63.4      135.9       0.8846
105          3        -0.0 +j      0.0        0.0      -0.0795
   TERMINAL TOTAL   -262.8 +j   -135.3      295.5       0.8891

ELEMENT = "Line.L102"
102          3        80.2 +j     40.2       89.7       0.8941
   TERMINAL TOTAL     80.2 +j     40.2       89.7       0.8941
103          3       -80.1 +j    -40.1       89.5       0.8943
   TERMINAL TOTAL    -80.1 +j    -40.1       89.5       0.8943

ELEMENT = "Line.L103"
103          3        40.1 +j     20.1       44.8       0.8942
   TERMINAL TOTAL     40.1 +j     20.1       44.8       0.8942
104          3       -40.0 +j    -20.0       44.7       0.8944
   TERMINAL TOTAL    -40.0 +j    -20.0       44.7       0.8944

ELEMENT = "Line.L104"
105          2       120.2 +j     63.4      135.9       0.8845
   TERMINAL TOTAL    120.2 +j     63.4      135.9       0.8845
106          2      -120.1 +j    -63.2      135.7       0.8848
   TERMINAL TOTAL   -120.1 +j    -63.2      135.7       0.8848

ELEMENT = "Line.L105"
105          1       142.5 +j     71.9      159.6       0.8929
105          2        -0.0 +j     -0.0        0.0       0.1399
105          3         0.0 +j     -0.0        0.0      -0.0795
   TERMINAL TOTAL    142.5 +j     71.8      159.6       0.8930
108          1      -142.4 +j    -71.6      159.4       0.8934
108          2         0.0 +j      0.0        0.0       0.1401
108          3        -0.0 +j      0.0        0.0      -0.0802
   TERMINAL TOTAL   -142.4 +j    -71.6      159.4       0.8935

ELEMENT = "Line.L106"
106          2        40.1 +j     20.0       44.8       0.8942
   TERMINAL TOTAL     40.1 +j     20.0       44.8       0.8942
107          2       -40.0 +j    -20.0       44.7       0.8944
   TERMINAL TOTAL    -40.0 +j    -20.0       44.7       0.8944

ELEMENT = "Line.L107"
108          1       142.4 +j     71.6      159.4       0.8934
   TERMINAL TOTAL    142.4 +j     71.6      159.4       0.8934
109          1      -141.9 +j    -71.1      158.7       0.8940
   TERMINAL TOTAL   -141.9 +j    -71.1      158.7       0.8940

ELEMENT = "Line.L108"
108          1         0.0 +j     -0.0        0.0      -0.0602
108          2        -0.0 +j     -0.0        0.0       0.1401
108          3         0.0 +j     -0.0        0.0      -0.0802
   TERMINAL TOTAL      0.0 +j     -0.0        0.0      -0.0000
300          1        -0.0 +j     -0.0        0.0       0.6085
300          2        -0.0 +j     -0.0        0.0       0.5376
300          3         0.0 +j      0.0        0.0       0.5850
   TERMINAL TOTAL     -0.0 +j     -0.0        0.0       0.5521

ELEMENT = "Line.L109"
109          1       101.9 +j     51.1      114.0       0.8939
   TERMINAL TOTAL    101.9 +j     51.1      114.0       0.8939
110          1      -101.8 +j    -51.0      113.8       0.8942
   TERMINAL TOTAL   -101.8 +j    -51.0      113.8       0.8942

ELEMENT = "Line.L110"
110          1        20.0 +j     10.0       22.4       0.8944
   TERMINAL TOTAL     20.0 +j     10.0       22.4       0.8944
111          1       -20.0 +j    -10.0       22.4       0.8944
   TERMINAL TOTAL    -20.0 +j    -10.0       22.4       0.8944

ELEMENT = "Line.L111"
110          1        81.7 +j     40.9       91.4       0.8941
   TERMINAL TOTAL     81.7 +j     40.9       91.4       0.8941
112          1       -81.7 +j    -40.9       91.4       0.8942
   TERMINAL TOTAL    -81.7 +j    -40.9       91.4       0.8942

ELEMENT = "Line.L112"
112          1        61.4 +j     30.7       68.6       0.8941
   TERMINAL TOTAL     61.4 +j     30.7       68.6       0.8941
113          1       -61.2 +j    -30.6       68.5       0.8944
   TERMINAL TOTAL    -61.2 +j    -30.6       68.5       0.8944

ELEMENT = "Line.L113"
113          1        20.0 +j     10.0       22.4       0.8944
   TERMINAL TOTAL     20.0 +j     10.0       22.4       0.8944
114          1       -20.0 +j    -10.0       22.4       0.8944
   TERMINAL TOTAL    -20.0 +j    -10.0       22.4       0.8944

ELEMENT = "Line.L114"
135          1       283.0 +j    157.6      323.9       0.8737
135          2       275.4 +j    192.3      335.9       0.8200
135          3       200.8 +j    126.6      237.4       0.8459
   TERMINAL TOTAL    759.2 +j    476.4      896.3       0.8470
35           1      -282.4 +j   -156.7      323.0       0.8744
35           2      -275.0 +j   -191.4      335.1       0.8209
35           3      -200.7 +j   -126.3      237.1       0.8464
   TERMINAL TOTAL   -758.1 +j   -474.3      894.3       0.8478

ELEMENT = "Line.L116"
152          1       782.2 +j    174.6      801.5       0.9760
152          2       642.5 +j    112.9      652.3       0.9849
152          3       641.3 +j     78.4      646.1       0.9926
   TERMINAL TOTAL   2066.0 +j    365.9     2098.2       0.9847
52           1      -778.6 +j   -168.7      796.6       0.9773
52           2      -641.9 +j   -109.7      651.2       0.9857
52           3      -639.8 +j    -75.3      644.2       0.9931
   TERMINAL TOTAL  -2060.2 +j   -353.7     2090.3       0.9856

ELEMENT = "Line.L117"
160R         1       567.1 +j     27.2      567.8       0.9989
160R         2       464.4 +j      8.6      464.5       0.9998
160R         3       459.5 +j    -18.9      459.9      -0.9992
   TERMINAL TOTAL   1491.1 +j     16.9     1491.1       0.9999
67           1      -566.2 +j    -24.8      566.7       0.9990
67           2      -463.8 +j     -7.0      463.8       0.9999
67           3      -458.6 +j     20.0      459.1      -0.9990
   TERMINAL TOTAL  -1488.6 +j    -11.8     1488.6       1.0000

ELEMENT = "Line.SW1"
150R         1      1460.1 +j    580.8     1571.3       0.9292
150R         2      1002.8 +j    369.3     1068.6       0.9384
150R         3      1187.3 +j    398.7     1252.5       0.9480
   TERMINAL TOTAL   3650.2 +j   1348.8     3891.4       0.9380
149          1     -1460.1 +j   -580.8     1571.3       0.9292
149          2     -1002.8 +j   -369.3     1068.6       0.9384
149          3     -1187.3 +j   -398.7     1252.5       0.9480
   TERMINAL TOTAL  -3650.2 +j  -1348.8     3891.4       0.9380

ELEMENT = "Line.SW2"
13           1       782.2 +j    174.6      801.5       0.9760
13           2       642.5 +j    112.9      652.3       0.9849
13           3       641.3 +j     78.4      646.1       0.9926
   TERMINAL TOTAL   2066.0 +j    365.9     2098.2       0.9847
152          1      -782.2 +j   -174.6      801.5       0.9760
152          2      -642.5 +j   -112.9      652.3       0.9849
152          3      -641.3 +j    -78.4      646.1       0.9926
   TERMINAL TOTAL  -2066.0 +j   -365.9     2098.2       0.9847

ELEMENT = "Line.SW3"
18           1       283.0 +j    157.6      323.9       0.8737
18           2       275.4 +j    192.3      335.9       0.8200
18           3       200.8 +j    126.6      237.4       0.8459
   TERMINAL TOTAL    759.2 +j    476.4      896.3       0.8470
135          1      -283.0 +j   -157.6      323.9       0.8737
135          2      -275.4 +j   -192.3      335.9       0.8200
135          3      -200.8 +j   -126.6      237.4       0.8459
   TERMINAL TOTAL   -759.2 +j   -476.4      896.3       0.8470

ELEMENT = "Line.SW4"
60           1       567.1 +j     27.2      567.8       0.9989
60           2       464.4 +j      8.7      464.5       0.9998
60           3       459.5 +j    -18.9      459.9      -0.9992
   TERMINAL TOTAL   1491.1 +j     16.9     1491.1       0.9999
160          1      -567.1 +j    -27.2      567.8       0.9989
160          2      -464.4 +j     -8.7      464.5       0.9998
160          3      -459.5 +j     18.9      459.9      -0.9992
   TERMINAL TOTAL  -1491.1 +j    -16.9     1491.1       0.9999

ELEMENT = "Line.SW5"
97           1       142.7 +j     72.2      160.0       0.8924
97           2       120.3 +j     63.6      136.1       0.8839
97           3       100.3 +j     50.3      112.2       0.8939
   TERMINAL TOTAL    363.3 +j    186.1      408.2       0.8900
197          1      -142.7 +j    -72.2      160.0       0.8924
197          2      -120.3 +j    -63.6      136.1       0.8839
197          3      -100.3 +j    -50.3      112.2       0.8939
   TERMINAL TOTAL   -363.3 +j   -186.1      408.2       0.8900

ELEMENT = "Line.SW6"
61           1         0.0 +j      0.0        0.0       0.0241
61           2         0.0 +j      0.0        0.0       0.0156
61           3         0.0 +j      0.0        0.0       0.0246
   TERMINAL TOTAL      0.0 +j      0.0        0.0       0.0213
61S          1        -0.0 +j     -0.0        0.0       0.0241
61S          2        -0.0 +j     -0.0        0.0       0.0156
61S          3        -0.0 +j     -0.0        0.0       0.0246
   TERMINAL TOTAL     -0.0 +j     -0.0        0.0       0.0213

ELEMENT = "Line.SW7"
151          1         0.0 +j     -0.0        0.0       1.0000
151          2        -0.0 +j      0.0        0.0       1.0000
151          3         0.0 +j      0.0        0.0       1.0000
   TERMINAL TOTAL      0.0 +j      0.0        0.0       1.0000
300_OPEN     1         0.0 +j     -0.0        0.0       1.0000
300_OPEN     2        -0.0 +j      0.0        0.0       1.0000
300_OPEN     3         0.0 +j      0.0        0.0       1.0000
   TERMINAL TOTAL      0.0 +j      0.0        0.0       1.0000

ELEMENT = "Line.SW8"
54           1         0.0 +j     -0.0        0.0       1.0000
   TERMINAL TOTAL      0.0 +j      0.0        0.0       1.0000
94_OPEN      1         0.0 +j     -0.0        0.0       1.0000
   TERMINAL TOTAL      0.0 +j      0.0        0.0       1.0000

ELEMENT = "Transformer.XFM1"
61S          1         0.0 +j      0.0        0.0       0.0055
61S          2         0.0 +j      0.0        0.0       0.0011
61S          3        -0.0 +j      0.0        0.0      -0.0064
61S          0         0.0 +j      0.0        0.0       1.0000
   TERMINAL TOTAL     -0.0 +j      0.0        0.0      -0.0000
610          1         0.0 +j      0.0        0.0       0.9628
610          2         0.0 +j      0.0        0.0       0.9118
610          3        -0.0 +j      0.0        0.0      -0.0078
610          0         0.0 +j      0.0        0.0       1.0000
   TERMINAL TOTAL      0.0 +j      0.0        0.0       0.6764

ELEMENT = "Capacitor.C83"
83           1         0.0 +j   -214.1      214.1      -0.0000
83           2        -0.0 +j   -215.4      215.4       0.0000
83           3        -0.0 +j   -214.1      214.1       0.0000
   TERMINAL TOTAL     -0.0 +j   -643.6      643.6       0.0000
83           0        -0.0 +j      0.0        0.0       1.0000
83           0         0.0 +j     -0.0        0.0       1.0000
83           0         0.0 +j      0.0        0.0       1.0000
   TERMINAL TOTAL      0.0 +j      0.0        0.0       1.0000

ELEMENT = "Capacitor.C88A"
88           1         0.0 +j    -52.7       52.7      -0.0000
   TERMINAL TOTAL      0.0 +j    -52.7       52.7      -0.0000
88           0        -0.0 +j      0.0        0.0       1.0000
   TERMINAL TOTAL      0.0 +j      0.0        0.0       1.0000

ELEMENT = "Capacitor.C90B"
90           2         0.0 +j    -52.9       52.9      -0.0000
   TERMINAL TOTAL      0.0 +j    -52.9       52.9      -0.0000
90           0         0.0 +j     -0.0        0.0       1.0000
   TERMINAL TOTAL      0.0 +j      0.0        0.0       1.0000

ELEMENT = "Capacitor.C92C"
92           3         0.0 +j    -53.4       53.4      -0.0000
   TERMINAL TOTAL      0.0 +j    -53.4       53.4      -0.0000
92           0         0.0 +j      0.0        0.0       1.0000
   TERMINAL TOTAL      0.0 +j      0.0        0.0       1.0000

ELEMENT = "Transformer.REG2A"
9            1        60.8 +j     30.4       68.0       0.8941
9            0         0.0 +j     -0.0        0.0       1.0000
   TERMINAL TOTAL     60.8 +j     30.4       68.0       0.8941
9R           1       -60.8 +j    -30.4       68.0       0.8941
9R           0         0.0 +j      0.0        0.0       1.0000
   TERMINAL TOTAL    -60.8 +j    -30.4       68.0       0.8941

ELEMENT = "Transformer.REG3A"
25           1        40.1 +j     20.1       44.9       0.8939
25           0         0.0 +j     -0.0        0.0       1.0000
   TERMINAL TOTAL     40.1 +j     20.1       44.9       0.8939
25R          1       -40.1 +j    -20.1       44.9       0.8939
25R          0         0.0 +j      0.0        0.0       1.0000
   TERMINAL TOTAL    -40.1 +j    -20.1       44.9       0.8939

ELEMENT = "Transformer.REG4A"
160          1       567.1 +j     27.2      567.8       0.9989
160          0         0.0 +j     -0.0        0.0       1.0000
   TERMINAL TOTAL    567.1 +j     27.2      567.8       0.9989
160R         1      -567.1 +j    -27.2      567.8       0.9989
160R         0         0.0 +j      0.0        0.0       1.0000
   TERMINAL TOTAL   -567.1 +j    -27.2      567.8       0.9989

ELEMENT = "Transformer.REG3C"
25           3        40.0 +j     20.0       44.8       0.8943
25           0         0.0 +j      0.0        0.0       1.0000
   TERMINAL TOTAL     40.0 +j     20.0       44.8       0.8943
25R          3       -40.0 +j    -20.0       44.8       0.8943
25R          0         0.0 +j     -0.0        0.0       1.0000
   TERMINAL TOTAL    -40.0 +j    -20.0       44.8       0.8943

ELEMENT = "Transformer.REG4B"
160          2       464.4 +j      8.7      464.5       0.9998
160          0         0.0 +j      0.0        0.0       1.0000
   TERMINAL TOTAL    464.4 +j      8.7      464.5       0.9998
160R         2      -464.4 +j     -8.6      464.5       0.9998
160R         0        -0.0 +j      0.0        0.0       1.0000
   TERMINAL TOTAL   -464.4 +j     -8.6      464.5       0.9998

ELEMENT = "Transformer.REG4C"
160          3       459.5 +j    -18.9      459.9      -0.9992
160          0         0.0 +j      0.0        0.0       1.0000
   TERMINAL TOTAL    459.5 +j    -18.9      459.9      -0.9992
160R         3      -459.5 +j     18.9      459.9      -0.9992
160R         0         0.0 +j     -0.0        0.0       1.0000
   TERMINAL TOTAL   -459.5 +j     18.9      459.9      -0.9992

= = = = = = = = = = = = = = = = = = =  = = = = = = = = = = =  = =

Power Conversion Elements

  Bus    Phase     kW   +j  kvar         kVA         PF

ELEMENT = "Load.S1A"
1            1      40.0 +j   20.0       44.7       0.8944
1            0       0.0 +j   -0.0        0.0       1.0000
   TERMINAL TOTAL   40.0 +j   20.0       44.7       0.8944

ELEMENT = "Load.S2B"
2            2      20.0 +j   10.0       22.4       0.8944
2            0       0.0 +j    0.0        0.0       1.0000
   TERMINAL TOTAL   20.0 +j   10.0       22.4       0.8944

ELEMENT = "Load.S4C"
4            3      40.0 +j   20.0       44.7       0.8944
4            0       0.0 +j    0.0        0.0       1.0000
   TERMINAL TOTAL   40.0 +j   20.0       44.7       0.8944

ELEMENT = "Load.S5C"
5            3      20.5 +j   10.3       23.0       0.8944
5            0       0.0 +j    0.0        0.0       1.0000
   TERMINAL TOTAL   20.5 +j   10.3       23.0       0.8944

ELEMENT = "Load.S6C"
6            3      42.1 +j   21.1       47.1       0.8944
6            0       0.0 +j    0.0        0.0       1.0000
   TERMINAL TOTAL   42.1 +j   21.1       47.1       0.8944

ELEMENT = "Load.S7A"
7            1      20.0 +j   10.0       22.4       0.8944
7            0       0.0 +j   -0.0        0.0       1.0000
   TERMINAL TOTAL   20.0 +j   10.0       22.4       0.8944

ELEMENT = "Load.S9A"
9            1      40.0 +j   20.0       44.7       0.8944
9            0       0.0 +j   -0.0        0.0       1.0000
   TERMINAL TOTAL   40.0 +j   20.0       44.7       0.8944

ELEMENT = "Load.S10A"
10           1      20.1 +j   10.1       22.5       0.8944
10           0       0.0 +j   -0.0        0.0       1.0000
   TERMINAL TOTAL   20.1 +j   10.1       22.5       0.8944

ELEMENT = "Load.S11A"
11           1      40.5 +j   20.3       45.3       0.8944
11           0       0.0 +j   -0.0        0.0       1.0000
   TERMINAL TOTAL   40.5 +j   20.3       45.3       0.8944

ELEMENT = "Load.S12B"
12           2      20.0 +j   10.0       22.4       0.8944
12           0       0.0 +j    0.0        0.0       1.0000
   TERMINAL TOTAL   20.0 +j   10.0       22.4       0.8944

ELEMENT = "Load.S16C"
16           3      40.0 +j   20.0       44.7       0.8944
16           0       0.0 +j    0.0        0.0       1.0000
   TERMINAL TOTAL   40.0 +j   20.0       44.7       0.8944

ELEMENT = "Load.S17C"
...